********************************************************************************
* SPICE netlist generated by HiPer Verify's NetList Extractor
*
* Extract Date/Time:	Tue Mar 19 01:09:04 2019
* L-Edit Version:		L-Edit Win64 16.01.20130408.01:22:50
*
* Rule Set Name:		
* TDB File Name:		C:\Users\Afreen\Desktop\inverter.tdb
* Command File:		C:\Users\Afreen\Documents\Tanner EDA\Tanner Tools v16.0\Process\Generic_250nm\Generic_250nm_Tech\TDB\Rules\Generic_250nm.ext
* Cell Name:			cell1
* Write Flat:			NO
********************************************************************************



****************************************

M1 out 1 gnd_ 2 NMOS25 l=3e-007 w=8.25e-007 ad=1.485e-012 as=8.45625e-013 pd=5.25e-006 ps=3.7e-006  $ (31.425 20.95 31.725 21.775)
M2 out 1 vdd 3 PMOS25 l=3e-007 w=6e-007 ad=5.4e-013 as=4.65e-013 pd=3e-006 ps=2.75e-006  $ (31.425 24.1 31.725 24.7)
* Top level device count
* M(NMOS25)		1
* M(PMOS25)		1
* Number of devices:	2
* Number of nodes:	6
.lib "C:\Users\Afreen\Documents\Tanner EDA\Tanner Tools v16.0\Process\Generic_250nm\Generic_250nm_Tech\Generic_250nm.lib" TT
vdd vdd gnd 5
vin 1 gnd_ pulse( 0 5 0 1n 1n 10n 22n)
.tran 1n 100n
.print v(1) v(out)
.end

